*KEYWORD
$
$ File created by cubit version 17.0
$...>....1....>....2....>....3....>....4....>....5....>....6....>....7....>....8
*TITLE
$ cubit(C:/Users/BIM15/OneDrive/Рабочий стол/3.k): 12/27/2020: 19:48:16
*PART
Block 1
$    pid     sid     mid   eosid    hgid    grav  adpopt    tmid
       1       1     100       0       0       0       0     100
*SECTION_SHELL
       1
$     t1      t2      t3      t4
       1       1       1       1

*MAT_ELASTIC
     100   7e-06  206800    0.29     0.0     0.0       0
*MAT_THERMAL_ISOTROPIC
     100     0.0     0.0     0.0     0.0     0.0
     500   0.045
*NODE
$    nid               x               y               z      tc      rc
    4527        0.288675         3.83333               0       0       0
    4521               0               4               0       0       0
    4520               0         3.66667               0       0       0
    4528        0.288675         2.83333               0       0       0
    4518               0               3               0       0       0
    4517               0         2.66667               0       0       0
    4515               0               2               0       0       0
    4514               0         1.66667               0       0       0
    4529        0.288675         1.83333               0       0       0
    4502         3.81818         3.45455               0       0       0
    4501         3.54545         3.63636               0       0       0
    4530         3.52147         3.30493               0       0       0
    4504         4.36364         3.09091               0       0       0
    4503         4.09091         3.27273               0       0       0
    4531         4.06692         2.94129               0       0       0
    4533          4.8851         2.39583               0       0       0
    4506         4.90909         2.72727               0       0       0
    4532         4.61237         2.57765               0       0       0
    4471         5.33333               0               0       0       0
    4534         5.16667        0.288675               0       0       0
$ ... 304 like lines cut
$
$...>....1....>....2....>....3....>....4....>....5....>....6....>....7....>....8
$    eid     pid      n1      n2      n3      n4      n5      n6      n7      n8
*ELEMENT_SHELL
       1       1    4527    4521    4520    4520
       2       1    4528    4518    4517    4517
       3       1    4515    4514    4529    4529
       4       1    4502    4501    4530    4530
       5       1    4504    4503    4531    4531
       6       1    4533    4506    4532    4532
       7       1    4471    4534    4470    4470
       8       1    4535    4534    4471    4471
       9       1    4536    4541    4473    4473
      10       1    4537    4536    4474    4474
      11       1    4538    4537    4475    4475
      12       1    4539    4538    4476    4476
      13       1    4540    4539    4477    4477
      14       1    4452    4479    4478    4478
      15       1    4541    4472    4473    4473
      16       1    4542    4469    4470    4470
      17       1    4543    4540    4479    4479
      18       1    4544    4466    4467    4467
      19       1    4545    4543    4480    4480
      20       1    4546    4464    4465    4465
$ ... 550 like lines cut
*END
