*KEYWORD
$
$ File created by cubit version 17.0
$...>....1....>....2....>....3....>....4....>....5....>....6....>....7....>....8
*TITLE
$ cubit(C:/Users/BIM15/OneDrive/Рабочий стол/8.k): 12/28/2020: 21:17:58
*PART
Block 1
$    pid     sid     mid   eosid    hgid    grav  adpopt    tmid
       1       1     100       0       0       0       0     100
*SECTION_SHELL
       1
$     t1      t2      t3      t4
       1       1       1       1

*MAT_ELASTIC
     100   7e-06  206800    0.29     0.0     0.0       0
*MAT_THERMAL_ISOTROPIC
     100     0.0     0.0     0.0     0.0     0.0
     500   0.045
*NODE
$    nid               x               y               z      tc      rc
    1733          2.8125         1.21071               0       0       0
     128            2.75         1.32078               0       0       0
    1734          2.6875         1.21071               0       0       0
     473           2.625         1.10065               0       0       0
    1735            2.75         1.10065               0       0       0
     474           2.875         1.10065               0       0       0
    1730          2.6875        0.990582               0       0       0
     362            2.75        0.880517               0       0       0
    1732          2.8125        0.990582               0       0       0
    1736         1.98253         3.62759               0       0       0
      93         2.08301         3.55308               0       0       0
     914         2.09049         3.68037               0       0       0
     271         2.09797         3.80767               0       0       0
    1737         1.99001         3.75488               0       0       0
     475         1.88204         3.70209               0       0       0
     921         2.10545         3.93496               0       0       0
      88         2.11293         4.06225               0       0       0
    1184         2.00497         4.00947               0       0       0
     343         1.89701         3.95668               0       0       0
    1738         1.99749         3.88217               0       0       0
$ ... 2017 like lines cut
$
$...>....1....>....2....>....3....>....4....>....5....>....6....>....7....>....8
$    eid     pid      n1      n2      n3      n4      n5      n6      n7      n8
*ELEMENT_SHELL
       1       1    1733     128    1734    1734
       2       1    1734     473    1735    1735
       3       1    1735     474    1733    1733
       4       1    1733    1734    1735    1735
       5       1    1730     362    1732    1732
       6       1    1732     474    1735    1735
       7       1    1735     473    1730    1730
       8       1    1730    1732    1735    1735
       9       1    1736      93     914     914
      10       1     914     271    1737    1737
      11       1    1737     475    1736    1736
      12       1    1736     914    1737    1737
      13       1     921      88    1184    1184
      14       1    1184     343    1738    1738
      15       1    1738     271     921     921
      16       1     921    1184    1738    1738
      17       1    1189     120    1739    1739
      18       1    1739     475    1740    1740
      19       1    1740     343    1189    1189
      20       1    1189    1739    1740    1740
$ ... 3852 like lines cut
*END
