*KEYWORD
$
$ File created by cubit version 17.0
$...>....1....>....2....>....3....>....4....>....5....>....6....>....7....>....8
*TITLE
$ cubit(C:/Users/BIM15/OneDrive/Рабочий стол/7.k): 12/28/2020: 21:16:47
*PART
Block 1
$    pid     sid     mid   eosid    hgid    grav  adpopt    tmid
       1       1     100       0       0       0       0     100
*SECTION_SHELL
       1
$     t1      t2      t3      t4
       1       1       1       1

*MAT_ELASTIC
     100   7e-06  206800    0.29     0.0     0.0       0
*MAT_THERMAL_ISOTROPIC
     100     0.0     0.0     0.0     0.0     0.0
     500   0.045
*NODE
$    nid               x               y               z      tc      rc
    5210         2.12349         2.15513               0       0       0
    5236         2.04631         2.17513               0       0       0
    5225         2.05276         2.09233               0       0       0
    1459         2.12995         2.07233               0       0       0
    1450         1.97558         2.11233               0       0       0
    1458         2.11704         2.23794               0       0       0
    5234         2.18717         2.01494               0       0       0
    5233         2.25035         2.05433               0       0       0
    5211         2.19313         2.11171               0       0       0
    1457         2.25631          2.1511               0       0       0
    1453         2.24439         1.95756               0       0       0
    5212         2.18667         2.19452               0       0       0
    5196         2.26112          2.2361               0       0       0
    5215         2.19148         2.27952               0       0       0
    1430         2.26593         2.32111               0       0       0
    5235          2.0486         2.27462               0       0       0
    5202         1.97787         2.21182               0       0       0
    1449         1.98016          2.3113               0       0       0
    5216         2.12364         2.32275               0       0       0
    5205          2.0552         2.35944               0       0       0
$ ... 5069 like lines cut
$
$...>....1....>....2....>....3....>....4....>....5....>....6....>....7....>....8
$    eid     pid      n1      n2      n3      n4      n5      n6      n7      n8
*ELEMENT_SHELL
       1       1    5210    5236    5225    5225
       2       1    5225    1459    5210    5210
       3       1    5236    1450    5225    5225
       4       1    5210    1458    5236    5236
       5       1    5234    5233    5211    5211
       6       1    5211    1459    5234    5234
       7       1    5233    1457    5211    5211
       8       1    5234    1453    5233    5233
       9       1    5212    5196    5215    5215
      10       1    5215    1458    5212    5212
      11       1    5196    1430    5215    5215
      12       1    5212    1457    5196    5196
      13       1    5235    5202    5236    5236
      14       1    5236    1458    5235    5235
      15       1    5202    1450    5236    5236
      16       1    5235    1449    5202    5202
      17       1    5216    5205    5235    5235
      18       1    5235    1458    5216    5216
      19       1    5205    1449    5235    5235
      20       1    5216    1444    5205    5205
$ ... 9844 like lines cut
*END
